input/raw/IEEE14busPsse32.RAW
 0,    100.00, 32, 0, 0, 60.00 
 08/19/93 UW ARCHIVE 
 IEEE 14 Bus Test Case
    1,'Bus 1     HV',   1.0000,3,   1,   1,   1,1.05999994,   0.000000
    2,'Bus 2     HV',   1.0000,2,   1,   1,   1,1.04499996,  -4.980000
    3,'Bus 3     HV',   1.0000,2,   1,   1,   1,1.00999999, -12.720000
    4,'Bus 4     HV',   1.0000,1,   1,   1,   1,1.01900005, -10.330000
    5,'Bus 5     HV',   1.0000,1,   1,   1,   1,1.01999998,  -8.780000
    6,'Bus 6     LV',   1.0000,2,   1,   1,   1,1.07000005, -14.220000
    7,'Bus 7     ZV',   1.0000,1,   1,   1,   1,1.06200004, -13.370000
    8,'Bus 8     TV',   1.0000,2,   1,   1,   1,1.09000003, -13.360000
    9,'Bus 9     LV',   1.0000,1,   1,   1,   1,1.05599999, -14.940001
   10,'Bus 10    LV',   1.0000,1,   1,   1,   1,1.05100000, -15.100000
   11,'Bus 11    LV',   1.0000,1,   1,   1,   1,1.05700004, -14.789999
   12,'Bus 12    LV',   1.0000,1,   1,   1,   1,1.05499995, -15.070000
   13,'Bus 13    LV',   1.0000,1,   1,   1,   1,1.04999995, -15.159999
   14,'Bus 14    LV',   1.0000,1,   1,   1,   1,1.03600001, -16.039999
0 / END OF BUS DATA, BEGIN LOAD DATA
    2,'BL',1,   1,   1,    21.700,    12.700,     0.000,     0.000,     0.000,     0.000,   1,1
    3,'BL',1,   1,   1,    94.200,    19.000,     0.000,     0.000,     0.000,     0.000,   1,1
    4,'BL',1,   1,   1,    47.800,    -3.900,     0.000,     0.000,     0.000,     0.000,   1,1
    5,'BL',1,   1,   1,     7.600,     1.600,     0.000,     0.000,     0.000,     0.000,   1,1
    6,'BL',1,   1,   1,    11.200,     7.500,     0.000,     0.000,     0.000,     0.000,   1,1
    9,'BL',1,   1,   1,    29.500,    16.600,     0.000,     0.000,     0.000,     0.000,   1,1
   10,'BL',1,   1,   1,     9.000,     5.800,     0.000,     0.000,     0.000,     0.000,   1,1
   11,'BL',1,   1,   1,     3.500,     1.800,     0.000,     0.000,     0.000,     0.000,   1,1
   12,'BL',1,   1,   1,     6.100,     1.600,     0.000,     0.000,     0.000,     0.000,   1,1
   13,'BL',1,   1,   1,    13.500,     5.800,     0.000,     0.000,     0.000,     0.000,   1,1
   14,'BL',1,   1,   1,    14.900,     5.000,     0.000,     0.000,     0.000,     0.000,   1,1
0 / END OF LOAD DATA, BEGIN FIXED SHUNT DATA
     9,' 1', 1,     0.000,    19.000
0 / END OF FIXED SHUNT DATA, BEGIN GENERATOR DATA
    1,'1 ',   232.400,   -16.900,   -16.900,   -16.900,1.06000,    0,   100.000,   0.00000,   0.00001,   0.00000,   0.00000,1.00000,1,  100.0,  9999.000,     0.000,   1,1.0000,   0,1.0000,   0,1.0000,   0,1.0000,0, 1.0000
    2,'1 ',    40.000,    42.400,    50.000,   -40.000,1.04500,    0,   100.000,   0.00000,   0.00001,   0.00000,   0.00000,1.00000,1,  100.0,  9999.000,     0.000,   1,1.0000,   0,1.0000,   0,1.0000,   0,1.0000,0, 1.0000
    3,'1 ',     0.000,    23.400,    40.000,     0.000,1.01000,    0,   100.000,   0.00000,   0.00001,   0.00000,   0.00000,1.00000,1,  100.0,  9999.000,     0.000,   1,1.0000,   0,1.0000,   0,1.0000,   0,1.0000,0, 1.0000
    6,'1 ',     0.000,    12.200,    24.000,    -6.000,1.07000,    0,   100.000,   0.00000,   0.00001,   0.00000,   0.00000,1.00000,1,  100.0,  9999.000,     0.000,   1,1.0000,   0,1.0000,   0,1.0000,   0,1.0000,0, 1.0000
    8,'1 ',     0.000,    17.400,    24.000,    -6.000,1.09000,    0,   100.000,   0.00000,   0.00001,   0.00000,   0.00000,1.00000,1,  100.0,  9999.000,     0.000,   1,1.0000,   0,1.0000,   0,1.0000,   0,1.0000,0, 1.0000
0 / END OF GENERATOR DATA, BEGIN BRANCH DATA
     1,     2,'1 ',1.93800E-2,5.91700E-2,5.28000E-2,   0.00,   0.00,   0.00,  0.00000,  0.00000,  0.00000,  0.00000,1,1,   0.00,   1,1.0000,   0,1.0000,   0,1.0000,   0,1.0000
     1,     5,'1 ',5.40300E-2,2.23040E-1,4.92000E-2,   0.00,   0.00,   0.00,  0.00000,  0.00000,  0.00000,  0.00000,1,1,   0.00,   1,1.0000,   0,1.0000,   0,1.0000,   0,1.0000
     2,     3,'1 ',4.69900E-2,1.97970E-1,4.38000E-2,   0.00,   0.00,   0.00,  0.00000,  0.00000,  0.00000,  0.00000,1,1,   0.00,   1,1.0000,   0,1.0000,   0,1.0000,   0,1.0000
     2,     4,'1 ',5.81100E-2,1.76320E-1,3.40000E-2,   0.00,   0.00,   0.00,  0.00000,  0.00000,  0.00000,  0.00000,1,1,   0.00,   1,1.0000,   0,1.0000,   0,1.0000,   0,1.0000
     2,     5,'1 ',5.69500E-2,1.73880E-1,3.46000E-2,   0.00,   0.00,   0.00,  0.00000,  0.00000,  0.00000,  0.00000,1,1,   0.00,   1,1.0000,   0,1.0000,   0,1.0000,   0,1.0000
     3,     4,'1 ',6.70100E-2,1.71030E-1,1.28000E-2,   0.00,   0.00,   0.00,  0.00000,  0.00000,  0.00000,  0.00000,1,1,   0.00,   1,1.0000,   0,1.0000,   0,1.0000,   0,1.0000
     4,     5,'1 ',1.33500E-2,4.21100E-2,0.00000E-1,   0.00,   0.00,   0.00,  0.00000,  0.00000,  0.00000,  0.00000,1,1,   0.00,   1,1.0000,   0,1.0000,   0,1.0000,   0,1.0000
     4,     7,'1 ',1.00000E-7,2.09120E-1,0.00000E-1,   0.00,   0.00,   0.00,  0.00000,  0.00000,  0.00000,  0.00000,1,1,   0.00,   1,1.0000,   0,1.0000,   0,1.0000,   0,1.0000
     4,     9,'1 ',1.00000E-7,5.56180E-1,0.00000E-1,   0.00,   0.00,   0.00,  0.00000,  0.00000,  0.00000,  0.00000,1,1,   0.00,   1,1.0000,   0,1.0000,   0,1.0000,   0,1.0000
     5,     6,'1 ',1.00000E-7,2.52020E-1,0.00000E-1,   0.00,   0.00,   0.00,  0.00000,  0.00000,  0.00000,  0.00000,1,1,   0.00,   1,1.0000,   0,1.0000,   0,1.0000,   0,1.0000
     6,    11,'1 ',9.49800E-2,1.98900E-1,0.00000E-1,   0.00,   0.00,   0.00,  0.00000,  0.00000,  0.00000,  0.00000,1,1,   0.00,   1,1.0000,   0,1.0000,   0,1.0000,   0,1.0000
     6,    12,'1 ',1.22910E-1,2.55810E-1,0.00000E-1,   0.00,   0.00,   0.00,  0.00000,  0.00000,  0.00000,  0.00000,1,1,   0.00,   1,1.0000,   0,1.0000,   0,1.0000,   0,1.0000
     6,    13,'1 ',6.61500E-2,1.30270E-1,0.00000E-1,   0.00,   0.00,   0.00,  0.00000,  0.00000,  0.00000,  0.00000,1,1,   0.00,   1,1.0000,   0,1.0000,   0,1.0000,   0,1.0000
     7,     8,'1 ',1.00000E-7,1.76150E-1,0.00000E-1,   0.00,   0.00,   0.00,  0.00000,  0.00000,  0.00000,  0.00000,1,1,   0.00,   1,1.0000,   0,1.0000,   0,1.0000,   0,1.0000
     7,     9,'1 ',1.00000E-7,1.10010E-1,0.00000E-1,   0.00,   0.00,   0.00,  0.00000,  0.00000,  0.00000,  0.00000,1,1,   0.00,   1,1.0000,   0,1.0000,   0,1.0000,   0,1.0000
     9,    10,'1 ',3.18100E-2,8.45000E-2,0.00000E-1,   0.00,   0.00,   0.00,  0.00000,  0.00000,  0.00000,  0.00000,1,1,   0.00,   1,1.0000,   0,1.0000,   0,1.0000,   0,1.0000
     9,    14,'1 ',1.27110E-1,2.70380E-1,0.00000E-1,   0.00,   0.00,   0.00,  0.00000,  0.00000,  0.00000,  0.00000,1,1,   0.00,   1,1.0000,   0,1.0000,   0,1.0000,   0,1.0000
    10,    11,'1 ',8.20500E-2,1.92070E-1,0.00000E-1,   0.00,   0.00,   0.00,  0.00000,  0.00000,  0.00000,  0.00000,1,1,   0.00,   1,1.0000,   0,1.0000,   0,1.0000,   0,1.0000
    12,    13,'1 ',2.20920E-1,1.99880E-1,0.00000E-1,   0.00,   0.00,   0.00,  0.00000,  0.00000,  0.00000,  0.00000,1,1,   0.00,   1,1.0000,   0,1.0000,   0,1.0000,   0,1.0000
    13,    14,'1 ',1.70930E-1,3.48020E-1,0.00000E-1,   0.00,   0.00,   0.00,  0.00000,  0.00000,  0.00000,  0.00000,1,1,   0.00,   1,1.0000,   0,1.0000,   0,1.0000,   0,1.0000
0 / END OF BRANCH DATA, BEGIN TRANSFORMER DATA
0 / END OF TRANSFORMER DATA, BEGIN AREA DATA
   1,    2,     0.000,   999.990,'IEEE14      '
0 / END OF AREA DATA, BEGIN TWO-TERMINAL DC DATA
0 / END OF TWO-TERMINAL DC DATA, BEGIN VOLTAGE SOURCE CONVERTER DATA
0 / END OF VOLTAGE SOURCE CONVERTER DATA, BEGIN IMPEDANCE CORRECTION DATA
0 / END OF IMPEDANCE CORRECTION DATA, BEGIN MULTI-TERMINAL DC DATA
0 / END OF MULTI-TERMINAL DC DATA, BEGIN MULTI-SECTION LINE DATA
0 / END OF MULTI-SECTION LINE DATA, BEGIN ZONE DATA
   1,'IEEE 14 '
0 / END OF ZONE DATA, BEGIN INTER-AREA TRANSFER DATA
0 / END OF INTER-AREA TRANSFER DATA, BEGIN OWNER DATA
    1,'1'
0 / END OF OWNER DATA, BEGIN FACTS CONTROL DEVICE DATA
0 / END OF FACTS CONTROL DEVICE DATA, BEGIN SWITCHED SHUNT DATA
0 / END OF SWITCHED SHUNT DATA
Q
